
 *******************************************************************************

         NASA-GLENN CHEMICAL EQUILIBRIUM PROGRAM CEA, JUNE 21, 2002
                   BY  BONNIE MCBRIDE AND SANFORD GORDON
      REFS: NASA RP-1311, PART I, 1994 AND NASA RP-1311, PART II, 1996

 *******************************************************************************



 # tmp.inp generated by CEAGas
 problem case=CEAGas vu
    rho,kg/m**3 1.538861e-01
    u/r         7.738262e+02
 react
    name= H2  moles=0.5 t=300
    name= O2  moles=0.5 t=300
 only H2 O2 N2 O H OH H2O2 H2O HO2
 output massf trace=1.000000e-06
 end

 OPTIONS: TP=F  HP=F  SP=F  TV=F  UV=T  SV=F  DETN=F  SHOCK=F  REFL=F  INCD=F
 RKT=F  FROZ=F  EQL=F  IONS=F  SIUNIT=T  DEBUGF=F  SHKDBG=F  DETDBG=F  TRNSPT=F

 TRACE= 1.00E-06  S/R= 0.000000E+00  H/R= 0.000000E+00  U/R= 7.738262E+02

 SPECIFIC VOLUME,M**3/KG = 6.4983127E+00

    REACTANT           MOLES    (ENERGY/R),K   TEMP,K  DENSITY
        EXPLODED FORMULA
 N: H2               0.500000  -0.293582E+03   300.00  0.0000
          H  2.00000
 N: O2               0.500000  -0.293462E+03   300.00  0.0000
          O  2.00000

 WARNING!!  *N2             NOT A PRODUCT IN thermo.lib FILE (SEARCH)

  SPECIES BEING CONSIDERED IN THIS SYSTEM
 (CONDENSED PHASE MAY HAVE NAME LISTED SEVERAL TIMES)
  LAST thermo.inp UPDATE:    5/03/02

  g 6/97  *H               g 4/02  HO2              tpis78  *H2            
  g 8/89  H2O              g 6/99  H2O2             g 5/97  *O             
  g 4/02  *OH              tpis89  *O2            

 O/F =   0.000000

                       EFFECTIVE FUEL     EFFECTIVE OXIDANT        MIXTURE
 INTERNAL ENERGY           u(2)/R              u(1)/R              u0/R
 (KG-MOL)(K)/KG       -0.17258567E+02      0.00000000E+00      0.77382620E+03

 KG-FORM.WT./KG             bi(2)               bi(1)               b0i
  *H                   0.58798142E-01      0.00000000E+00      0.58798142E-01
  *O                   0.58798142E-01      0.00000000E+00      0.58798142E-01

 POINT ITN      T            H           O 
   1    8    3625.141     -11.490     -15.855




         THERMODYNAMIC EQUILIBRIUM COMBUSTION PROPERTIES AT ASSIGNED

                                     VOLUME

 CASE = CEAGas         

             REACTANT                       MOLES         ENERGY      TEMP
                                                         KJ/KG-MOL      K
 NAME        H2                           0.5000000     -2440.994    300.000
 NAME        O2                           0.5000000     -2439.995    300.000

 O/F=    0.00000  %FUEL=  0.000000  R,EQ.RATIO= 0.500000  PHI,EQ.RATIO= 0.000000

 THERMODYNAMIC PROPERTIES

 P, BAR            2.8250
 T, K             3625.14
 RHO, KG/CU M     1.5389-1
 H, KJ/KG         8269.73
 U, KJ/KG         6433.99
 G, KJ/KG        -48463.0
 S, KJ/(KG)(K)    15.6498

 M, (1/n)          16.419
 (dLV/dLP)t      -1.13067
 (dLV/dLT)p        3.1547
 Cp, KJ/(KG)(K)   20.4562
 GAMMAs            1.1308
 SON VEL,M/SEC     1440.8

 MASS FRACTIONS

 *H               8.2003-3
 HO2              3.9821-4
 *H2              1.0233-2
 H2O              2.5667-1
 H2O2             1.3280-5
 *O               1.6540-1
 *OH              2.0413-1
 *O2              3.5495-1

  * THERMODYNAMIC PROPERTIES FITTED TO 20000.K

    PRODUCTS WHICH WERE CONSIDERED BUT WHOSE MASS FRACTIONS
    WERE LESS THAN 1.000000E-06 FOR ALL ASSIGNED CONDITIONS





