
 *******************************************************************************

         NASA-GLENN CHEMICAL EQUILIBRIUM PROGRAM CEA, JUNE 21, 2002
                   BY  BONNIE MCBRIDE AND SANFORD GORDON
      REFS: NASA RP-1311, PART I, 1994 AND NASA RP-1311, PART II, 1996

 *******************************************************************************



 # tmp.inp generated by CEAGas
 problem case=CEAGas vu
    rho,kg/m**3 9.325905e+00
    u/r         3.612820e+02
 react
    name= H2  moles=0.963234 t=300
    name= O2  moles=0.0367658 t=300
 only H2 O2 O H OH H2O
 output massf trace=1.000000e-06
 end

 OPTIONS: TP=F  HP=F  SP=F  TV=F  UV=T  SV=F  DETN=F  SHOCK=F  REFL=F  INCD=F
 RKT=F  FROZ=F  EQL=F  IONS=F  SIUNIT=T  DEBUGF=F  SHKDBG=F  DETDBG=F  TRNSPT=F

 TRACE= 1.00E-06  S/R= 0.000000E+00  H/R= 0.000000E+00  U/R= 3.612820E+02

 SPECIFIC VOLUME,M**3/KG = 1.0722820E-01

    REACTANT           MOLES    (ENERGY/R),K   TEMP,K  DENSITY
        EXPLODED FORMULA
 N: H2               0.963234  -0.293582E+03   300.00  0.0000
          H  2.00000
 N: O2               0.036766  -0.293462E+03   300.00  0.0000
          O  2.00000

  SPECIES BEING CONSIDERED IN THIS SYSTEM
 (CONDENSED PHASE MAY HAVE NAME LISTED SEVERAL TIMES)
  LAST thermo.inp UPDATE:    5/03/02

  g 6/97  *H               tpis78  *H2              g 8/89  H2O            
  g 5/97  *O               g 4/02  *OH              tpis89  *O2            

 O/F =   0.000000

                       EFFECTIVE FUEL     EFFECTIVE OXIDANT        MIXTURE
 INTERNAL ENERGY           u(2)/R              u(1)/R              u0/R
 (KG-MOL)(K)/KG       -0.94149035E+02      0.00000000E+00      0.36128200E+03

 KG-FORM.WT./KG             bi(2)               bi(1)               b0i
  *H                   0.61780904E+00      0.00000000E+00      0.61780904E+00
  *O                   0.23581231E-01      0.00000000E+00      0.23581231E-01

 POINT ITN      T            H           O 
   1    9    1635.856      -6.482     -28.040




         THERMODYNAMIC EQUILIBRIUM COMBUSTION PROPERTIES AT ASSIGNED

                                     VOLUME

 CASE = CEAGas         

             REACTANT                       MOLES         ENERGY      TEMP
                                                         KJ/KG-MOL      K
 NAME        H2                           0.9632340     -2440.994    300.000
 NAME        O2                           0.0367658     -2439.995    300.000

 O/F=    0.00000  %FUEL=  0.000000  R,EQ.RATIO=13.099593  PHI,EQ.RATIO= 0.000000

 THERMODYNAMIC PROPERTIES

 P, BAR            391.83
 T, K             1635.86
 RHO, KG/CU M     9.3259 0
 H, KJ/KG         7205.41
 U, KJ/KG         3003.88
 G, KJ/KG        -63465.8
 S, KJ/(KG)(K)    43.2013

 M, (1/n)           3.237
 (dLV/dLP)t      -1.00000
 (dLV/dLT)p        1.0000
 Cp, KJ/(KG)(K)   10.5327
 GAMMAs            1.3225
 SON VEL,M/SEC     2357.2

 MASS FRACTIONS

 *H               1.1930-6
 *H2              5.7518-1
 H2O              4.2482-1

  * THERMODYNAMIC PROPERTIES FITTED TO 20000.K

    PRODUCTS WHICH WERE CONSIDERED BUT WHOSE MASS FRACTIONS
    WERE LESS THAN 1.000000E-06 FOR ALL ASSIGNED CONDITIONS

 *O              *OH             *O2            



